tests/resources/cases/ieee25_mw.raw
0,   100.00, 33, 0, 1, 60.00     / PSS(R)E-33.12   WED, FEB 16 2022  10:48
IEEE 25 BUS NETWORK
N-1-1 ANALYSIS DEMONSTRATION
   101,'COAL-A      ', 138.0000,2,   1,   1,   1,1.04908,  -7.1114,1.10000,0.90000,1.10000,0.90000
   102,'COAL-B      ', 138.0000,2,   1,   2,   1,1.04939,  -7.3439,1.10000,0.90000,1.10000,0.90000
   103,'WESTIE-1    ', 138.0000,1,   2,   1,   1,1.00694,  -2.2526,1.10000,0.90000,1.10000,0.90000
   104,'MARYLOAD    ', 138.0000,1,   1,   1,   1,1.00633,  -9.4335,1.10000,0.90000,1.10000,0.90000
   105,'ANNELOAD    ', 138.0000,1,   1,   1,   1,1.01944, -12.9669,1.10000,0.90000,1.10000,0.90000
   106,'REACTOR     ', 138.0000,1,   2,   2,   1,1.03452, -17.7608,1.10000,0.90000,1.10000,0.90000
   107,'MIDOIL      ', 138.0000,2,   5,   2,   1,1.04439, -14.6553,1.10000,0.90000,1.10000,0.90000
   108,'ERIKLOAD    ', 138.0000,1,   5,   2,   1,0.99675, -16.9531,1.10000,0.90000,1.10000,0.90000
   109,'MIDTIE-1    ', 138.0000,1,   2,   3,   1,1.01420,  -6.0518,1.10000,0.90000,1.10000,0.90000
   110,'EASTIE-1    ', 138.0000,1,   2,   3,   1,1.02778, -15.1023,1.10000,0.90000,1.10000,0.90000
   211,'MIDTIE-2    ', 230.0000,1,   3,   3,   1,0.98033,  -8.3774,1.10000,0.90000,1.10000,0.90000
   212,'EASTIE-2    ', 230.0000,1,   3,   3,   1,0.98908,   0.1940,1.10000,0.90000,1.10000,0.90000
   213,'BIGOIL      ', 230.0000,3,   3,   4,   1,1.01558,   0.0000,1.10000,0.90000,1.10000,0.90000
   214,'CONDENS     ', 230.0000,2,   3,   6,   1,1.00056,  -6.7957,1.10000,0.90000,1.10000,0.90000
   215,'MIDCOALP    ', 230.0000,2,   4,   6,   1,1.02092,  10.8839,1.10000,0.90000,1.10000,0.90000
   216,'MIDCOAL     ', 230.0000,2,   4,   6,   1,1.02606,  11.2106,1.10000,0.90000,1.10000,0.90000
   217,'NOLOAD      ', 230.0000,1,   4,   7,   1,1.04040,  15.8534,1.10000,0.90000,1.10000,0.90000
   218,'NUKE-A      ', 230.0000,2,   4,   7,   1,1.04994,  16.7618,1.10000,0.90000,1.10000,0.90000
   219,'VIKING      ', 230.0000,1,   3,   5,   1,1.02527,  11.1194,1.10000,0.90000,1.10000,0.90000
   220,'CARIOCA     ', 230.0000,1,   3,   5,   1,1.03779,  13.4075,1.10000,0.90000,1.10000,0.90000
   221,'NUKE-B      ', 230.0000,2,   4,   7,   1,1.04994,  17.7438,1.10000,0.90000,1.10000,0.90000
   222,'HYDRO       ', 230.0000,2,   4,   7,   1,1.04966,  27.8535,1.10000,0.90000,1.10000,0.90000
   223,'BIGCOAL     ', 230.0000,2,   3,   5,   1,1.04990,  15.5212,1.10000,0.90000,1.10000,0.90000
   224,'WESTIE-2    ', 230.0000,1,   3,   6,   1,0.97937,   1.5227,1.10000,0.90000,1.10000,0.90000
   225,'ADDON       ', 230.0000,1,   3,   5,   1,1.00277,   4.4077,1.10000,0.90000,1.10000,0.90000
0 / END OF BUS DATA, BEGIN LOAD DATA
   101,'1 ',1,   1,   1,   100.000,    27.500,     0.000,     0.000,     0.000,     0.000,   1,1,0
   102,'1 ',1,   1,   2,   121.300,    25.000,     0.000,     0.000,     0.000,     0.000,   1,1,0
   103,'1 ',1,   2,   1,   225.000,    46.300,     0.000,     0.000,     0.000,     0.000,   1,1,0
   104,'1 ',1,   1,   1,    92.500,    18.800,     0.000,     0.000,     0.000,     0.000,   1,1,0
   105,'1 ',1,   1,   1,    88.800,    17.500,     0.000,     0.000,     0.000,     0.000,   1,1,0
   106,'1 ',1,   2,   2,   170.000,    35.000,     0.000,     0.000,     0.000,     0.000,   1,1,0
   107,'1 ',1,   5,   2,   156.300,    31.300,     0.000,     0.000,     0.000,     0.000,   1,1,0
   108,'1 ',1,   5,   2,   213.800,    43.800,     0.000,     0.000,     0.000,     0.000,   1,1,0
   109,'1 ',1,   2,   3,   218.800,    45.000,     0.000,     0.000,     0.000,     0.000,   1,1,0
   110,'1 ',1,   2,   3,   243.800,    50.000,     0.000,     0.000,     0.000,     0.000,   1,1,0
   213,'1 ',1,   3,   4,   331.300,    67.500,     0.000,     0.000,     0.000,     0.000,   1,1,0
   214,'1 ',1,   3,   6,   242.500,    49.800,     0.000,     0.000,     0.000,     0.000,   1,1,0
   215,'1 ',1,   4,   6,   396.300,    80.000,     0.000,     0.000,     0.000,     0.000,   1,1,0
   216,'1 ',1,   4,   6,   125.000,    25.000,     0.000,     0.000,     0.000,     0.000,   1,1,0
   218,'1 ',1,   4,   7,   416.300,    85.000,     0.000,     0.000,     0.000,     0.000,   1,1,0
   219,'1 ',1,   3,   5,   226.300,    46.200,     0.000,     0.000,     0.000,     0.000,   1,1,0
   220,'1 ',1,   3,   5,   160.000,    32.500,     0.000,     0.000,     0.000,     0.000,   1,1,0
0 / END OF LOAD DATA, BEGIN FIXED SHUNT DATA
   106,'1 ',1,     0.000,   -40.000
0 / END OF FIXED SHUNT DATA, BEGIN GENERATOR DATA
   101,'1 ',    10.000,     0.000,    10.000,     0.000,1.04908,     0,    40.000, 0.00000E+0, 2.00000E-1, 0.00000E+0, 0.00000E+0,1.00000,0,  100.0,    20.000,     0.000,   1,1.0000
   101,'2 ',    10.000,     0.000,    10.000,     0.000,1.04908,     0,    40.000, 0.00000E+0, 2.00000E-1, 0.00000E+0, 0.00000E+0,1.00000,0,  100.0,    20.000,     0.000,   1,1.0000
   101,'3 ',    76.000,    10.250,    30.000,   -25.000,1.04908,     0,   100.000, 0.00000E+0, 1.81000E-1, 0.00000E+0, 0.00000E+0,1.00000,1,  100.0,    80.000,     0.000,   1,1.0000
   101,'4 ',    76.000,    10.250,    30.000,   -25.000,1.04908,     0,   100.000, 0.00000E+0, 1.81000E-1, 0.00000E+0, 0.00000E+0,1.00000,1,  100.0,    80.000,     0.000,   1,1.0000
   101,'5 ',    76.000,    10.250,    30.000,   -25.000,1.04908,     0,   100.000, 0.00000E+0, 1.81000E-1, 0.00000E+0, 0.00000E+0,1.00000,1,  100.0,    80.000,     0.000,   1,1.0000
   102,'1 ',    10.000,     0.000,    10.000,     0.000,1.04939,     0,    40.000, 0.00000E+0, 2.00000E-1, 0.00000E+0, 0.00000E+0,1.00000,0,  100.0,    20.000,     0.000,   1,1.0000
   102,'2 ',    10.000,     0.000,    10.000,     0.000,1.04939,     0,    40.000, 0.00000E+0, 2.00000E-1, 0.00000E+0, 0.00000E+0,1.00000,0,  100.0,    20.000,     0.000,   1,1.0000
   102,'3 ',    76.000,     7.036,    30.000,   -25.000,1.04939,     0,   100.000, 0.00000E+0, 1.81000E-1, 0.00000E+0, 0.00000E+0,1.00000,1,  100.0,    80.000,     0.000,   1,1.0000
   102,'4 ',    76.000,     7.036,    30.000,   -25.000,1.04939,     0,   100.000, 0.00000E+0, 1.81000E-1, 0.00000E+0, 0.00000E+0,1.00000,1,  100.0,    80.000,     0.000,   1,1.0000
   102,'5 ',    76.000,     7.036,    30.000,   -25.000,1.04939,     0,   100.000, 0.00000E+0, 1.81000E-1, 0.00000E+0, 0.00000E+0,1.00000,1,  100.0,    80.000,     0.000,   1,1.0000
   107,'1 ',    80.000,    30.370,    60.000,     0.000,1.04439,     0,   120.000, 0.00000E+0, 1.70000E-1, 0.00000E+0, 0.00000E+0,1.00000,1,  100.0,   100.000,     0.000,   1,1.0000
   107,'2 ',    80.000,    30.370,    60.000,     0.000,1.04439,     0,   120.000, 0.00000E+0, 1.70000E-1, 0.00000E+0, 0.00000E+0,1.00000,1,  100.0,   100.000,     0.000,   1,1.0000
   107,'3 ',    80.000,    30.370,    60.000,     0.000,1.04439,     0,   120.000, 0.00000E+0, 1.70000E-1, 0.00000E+0, 0.00000E+0,1.00000,1,  100.0,   100.000,     0.000,   1,1.0000
   213,'1 ',    72.647,    47.310,    80.000,     0.000,1.01558,     0,   250.000, 0.00000E+0, 1.70000E-1, 0.00000E+0, 0.00000E+0,1.00000,1,  100.0,   200.000,     0.000,   1,1.0000
   213,'2 ',    82.312,    53.605,    80.000,     0.000,1.01558,     0,   250.000, 0.00000E+0, 1.70000E-1, 0.00000E+0, 0.00000E+0,1.00000,1,  100.0,   200.000,     0.000,   1,1.0000
   213,'3 ',    82.312,    53.605,    80.000,     0.000,1.01558,     0,   250.000, 0.00000E+0, 1.70000E-1, 0.00000E+0, 0.00000E+0,1.00000,1,  100.0,   200.000,     0.000,   1,1.0000
   213,'4 ',    82.312,    53.605,    80.000,     0.000,1.01558,     0,   250.000, 0.00000E+0, 1.70000E-1, 0.00000E+0, 0.00000E+0,1.00000,1,  100.0,   200.000,     0.000,   1,1.0000
   214,'1 ',     0.000,    50.000,    50.000,  -200.000,1.00442,     0,   200.000, 0.00000E+0, 2.27000E-1, 0.00000E+0, 0.00000E+0,1.00000,1,  100.0,     0.000,     0.000,   1,1.0000
   214,'2 ',     0.000,    50.000,    50.000,  -200.000,1.00442,     0,   200.000, 0.00000E+0, 2.27000E-1, 0.00000E+0, 0.00000E+0,1.00000,1,  100.0,     0.000,     0.000,   1,1.0000
   215,'1 ',    12.000,     0.000,     6.000,     0.000,1.02448,     0,    20.000, 0.00000E+0, 2.27000E-1, 0.00000E+0, 0.00000E+0,1.00000,0,  100.0,    12.000,     0.000,   1,1.0000
   215,'2 ',    12.000,     0.000,     6.000,     0.000,1.02448,     0,    20.000, 0.00000E+0, 2.27000E-1, 0.00000E+0, 0.00000E+0,1.00000,0,  100.0,    12.000,     0.000,   1,1.0000
   215,'3 ',    12.000,     0.000,     6.000,     0.000,1.02448,     0,    20.000, 0.00000E+0, 2.27000E-1, 0.00000E+0, 0.00000E+0,1.00000,0,  100.0,    12.000,     0.000,   1,1.0000
   215,'4 ',    12.000,     0.000,     6.000,     0.000,1.02448,     0,    20.000, 0.00000E+0, 2.27000E-1, 0.00000E+0, 0.00000E+0,1.00000,0,  100.0,    12.000,     0.000,   1,1.0000
   215,'5 ',    12.000,     0.000,     6.000,     0.000,1.02448,     0,    20.000, 0.00000E+0, 2.27000E-1, 0.00000E+0, 0.00000E+0,1.00000,0,  100.0,    12.000,     0.000,   1,1.0000
   215,'6 ',   155.000,    80.000,    80.000,   -50.000,1.02448,     0,   372.000, 0.00000E+0, 1.81000E-1, 0.00000E+0, 0.00000E+0,1.00000,1,  100.0,   300.000,     0.000,   1,1.0000
   216,'1 ',   155.000,    80.000,    80.000,   -50.000,1.02648,     0,   372.000, 0.00000E+0, 1.81000E-1, 0.00000E+0, 0.00000E+0,1.00000,1,  100.0,   300.000,     0.000,   1,1.0000
   218,'1 ',   400.000,   151.454,   200.000,   -50.000,1.04994,     0,   700.000, 0.00000E+0, 3.00000E-1, 0.00000E+0, 0.00000E+0,1.00000,1,  100.0,   600.000,     0.000,   1,1.0000
   221,'1 ',   400.000,   106.077,   200.000,   -50.000,1.04994,     0,   460.000, 0.00000E+0, 3.00000E-1, 0.00000E+0, 0.00000E+0,1.00000,1,  100.0,   400.000,     0.000,   1,1.0000
   222,'1 ',    50.000,    -2.747,    16.000,   -10.000,1.04966,     0,    70.000, 0.00000E+0, 2.60000E-1, 0.00000E+0, 0.00000E+0,1.00000,1,  100.0,    50.000,    50.000,   1,1.0000
   222,'2 ',    50.000,    -2.747,    16.000,   -10.000,1.04966,     0,    70.000, 0.00000E+0, 2.60000E-1, 0.00000E+0, 0.00000E+0,1.00000,1,  100.0,    50.000,    50.000,   1,1.0000
   222,'3 ',    50.000,    -2.747,    16.000,   -10.000,1.04966,     0,    70.000, 0.00000E+0, 2.60000E-1, 0.00000E+0, 0.00000E+0,1.00000,1,  100.0,    50.000,    50.000,   1,1.0000
   222,'4 ',    50.000,    -2.747,    16.000,   -10.000,1.04966,     0,    70.000, 0.00000E+0, 2.60000E-1, 0.00000E+0, 0.00000E+0,1.00000,1,  100.0,    50.000,    50.000,   1,1.0000
   222,'5 ',    50.000,    -2.747,    16.000,   -10.000,1.04966,     0,    70.000, 0.00000E+0, 2.60000E-1, 0.00000E+0, 0.00000E+0,1.00000,1,  100.0,    50.000,    50.000,   1,1.0000
   222,'6 ',    50.000,    -2.747,    16.000,   -10.000,1.04966,     0,    70.000, 0.00000E+0, 2.60000E-1, 0.00000E+0, 0.00000E+0,1.00000,1,  100.0,    50.000,    50.000,   1,1.0000
   222,'7 ',    50.000,    -2.747,    16.000,   -10.000,1.04966,     0,    70.000, 0.00000E+0, 2.60000E-1, 0.00000E+0, 0.00000E+0,1.00000,1,  100.0,    50.000,    50.000,   1,1.0000
   222,'8 ',    50.000,    -2.747,    16.000,   -10.000,1.04966,     0,    70.000, 0.00000E+0, 2.60000E-1, 0.00000E+0, 0.00000E+0,1.00000,1,  100.0,    50.000,    50.000,   1,1.0000
   222,'9 ',    50.000,    -2.747,    16.000,   -10.000,1.04966,     0,    70.000, 0.00000E+0, 2.60000E-1, 0.00000E+0, 0.00000E+0,1.00000,1,  100.0,    50.000,    50.000,   1,1.0000
   222,'A ',    50.000,    -2.747,    16.000,   -10.000,1.04966,     0,    70.000, 0.00000E+0, 2.60000E-1, 0.00000E+0, 0.00000E+0,1.00000,1,  100.0,    50.000,    50.000,   1,1.0000
   223,'1 ',   155.000,    24.427,    80.000,   -50.000,1.04990,     0,   200.000, 0.00000E+0, 1.81000E-1, 0.00000E+0, 0.00000E+0,1.00000,1,  100.0,   155.000,     0.000,   1,1.0000
   223,'2 ',   155.000,    24.427,    80.000,   -50.000,1.04990,     0,   200.000, 0.00000E+0, 1.81000E-1, 0.00000E+0, 0.00000E+0,1.00000,1,  100.0,   155.000,     0.000,   1,1.0000
   223,'3 ',   350.000,    55.157,   150.000,   -25.000,1.04990,     0,   420.000, 0.00000E+0, 1.81000E-1, 0.00000E+0, 0.00000E+0,1.00000,1,  100.0,   350.000,     0.000,   1,1.0000
   223,'4 ',   350.000,    55.157,   150.000,   -25.000,1.04990,     0,   420.000, 0.00000E+0, 1.81000E-1, 0.00000E+0, 0.00000E+0,1.00000,1,  100.0,   350.000,     0.000,   1,1.0000
0 / END OF GENERATOR DATA, BEGIN BRANCH DATA
   101,   102,'1 ', 2.60000E-3, 1.39000E-2,   0.46110,  175.00,  193.00,  200.00,  0.00000,  0.00000,  0.00000,  0.00000,1,1,   0.00,   1,1.0000
   101,   103,'1 ', 5.46000E-2, 2.11200E-1,   0.05720,  175.00,  208.00,  220.00,  0.00000,  0.00000,  0.00000,  0.00000,1,1,   0.00,   1,1.0000
   101,   105,'1 ', 2.18000E-2, 8.45000E-2,   0.02290,  175.00,  208.00,  220.00,  0.00000,  0.00000,  0.00000,  0.00000,1,1,   0.00,   1,1.0000
   102,   104,'1 ', 3.28000E-2, 1.26700E-1,   0.03430,  175.00,  208.00,  220.00,  0.00000,  0.00000,  0.00000,  0.00000,1,1,   0.00,   1,1.0000
   102,   106,'1 ', 4.97000E-2, 1.92000E-1,   0.05200,  175.00,  208.00,  220.00,  0.00000,  0.00000,  0.00000,  0.00000,1,1,   0.00,   1,1.0000
   103,   109,'1 ', 3.08000E-2, 1.19000E-1,   0.03220,  175.00,  208.00,  220.00,  0.00000,  0.00000,  0.00000,  0.00000,1,1,   0.00,   1,1.0000
   104,   109,'1 ', 2.68000E-2, 1.03700E-1,   0.02810,  175.00,  208.00,  220.00,  0.00000,  0.00000,  0.00000,  0.00000,1,1,   0.00,   1,1.0000
   105,   110,'1 ', 2.28000E-2, 8.83000E-2,   0.02390,  175.00,  208.00,  220.00,  0.00000,  0.00000,  0.00000,  0.00000,1,1,   0.00,   1,1.0000
   106,   110,'1 ', 1.39000E-2, 6.05000E-2,   2.45900,  999.00,  999.00,  999.00,  0.00000,  0.00000,  0.00000,  0.00000,1,1,   0.00,   1,1.0000
   107,   108,'1 ', 1.59000E-2, 6.14000E-2,   0.01660,  175.00,  208.00,  220.00,  0.00000,  0.00000,  0.00000,  0.00000,1,1,   0.00,   1,1.0000
   108,   109,'1 ', 4.27000E-2, 1.65100E-1,   0.04470,  175.00,  208.00,  220.00,  0.00000,  0.00000,  0.00000,  0.00000,1,1,   0.00,   1,1.0000
   108,   110,'1 ', 4.27000E-2, 1.65100E-1,   0.04470,  175.00,  208.00,  220.00,  0.00000,  0.00000,  0.00000,  0.00000,1,1,   0.00,   1,1.0000
   211,   213,'1 ', 6.10000E-3, 4.76000E-2,   0.09990,  500.00,  600.00,  625.00,  0.00000,  0.00000,  0.00000,  0.00000,1,1,   0.00,   1,1.0000
   211,   214,'1 ', 5.40000E-3, 4.18000E-2,   0.08790,  500.00,  600.00,  625.00,  0.00000,  0.00000,  0.00000,  0.00000,1,1,   0.00,   1,1.0000
   212,   213,'1 ', 6.10000E-3, 4.76000E-2,   0.09990,  500.00,  600.00,  625.00,  0.00000,  0.00000,  0.00000,  0.00000,1,1,   0.00,   1,1.0000
   212,   223,'1 ', 1.24000E-2, 9.66000E-2,   0.20300,  500.00,  600.00,  625.00,  0.00000,  0.00000,  0.00000,  0.00000,1,1,   0.00,   1,1.0000
   213,   223,'1 ', 1.11000E-2, 8.65000E-2,   0.18180,  500.00,  600.00,  625.00,  0.00000,  0.00000,  0.00000,  0.00000,1,1,   0.00,   1,1.0000
   215,   216,'1 ', 2.20000E-3, 1.73000E-2,   0.03640,  500.00,  600.00,  625.00,  0.00000,  0.00000,  0.00000,  0.00000,1,1,   0.00,   1,1.0000
   215,   221,'1 ', 6.30000E-3, 4.90000E-2,   0.10300,  500.00,  600.00,  625.00,  0.00000,  0.00000,  0.00000,  0.00000,1,1,   0.00,   1,1.0000
   215,   221,'2 ', 6.30000E-3, 4.90000E-2,   0.10300,  500.00,  600.00,  625.00,  0.00000,  0.00000,  0.00000,  0.00000,1,1,   0.00,   1,1.0000
   215,   224,'1 ', 6.70000E-3, 5.19000E-2,   0.10910,  500.00,  600.00,  625.00,  0.00000,  0.00000,  0.00000,  0.00000,1,1,   0.00,   1,1.0000
   216,   217,'1 ', 3.30000E-3, 2.59000E-2,   0.05450,  500.00,  600.00,  625.00,  0.00000,  0.00000,  0.00000,  0.00000,1,1,   0.00,   1,1.0000
   216,   219,'1 ', 3.00000E-3, 2.31000E-2,   0.04850,  500.00,  600.00,  625.00,  0.00000,  0.00000,  0.00000,  0.00000,1,1,   0.00,   1,1.0000
   216,   225,'1 ', 5.00000E-3, 3.89000E-2,   0.08180,  500.00,  600.00,  625.00,  0.00000,  0.00000,  0.00000,  0.00000,1,1,   0.00,   1,1.0000
   217,   218,'1 ', 1.80000E-3, 1.44000E-2,   0.03030,  500.00,  600.00,  625.00,  0.00000,  0.00000,  0.00000,  0.00000,1,1,   0.00,   1,1.0000
   217,   222,'1 ', 1.35000E-2, 1.05300E-1,   0.22120,  500.00,  600.00,  625.00,  0.00000,  0.00000,  0.00000,  0.00000,1,1,   0.00,   1,1.0000
   218,   221,'1 ', 3.30000E-3, 2.59000E-2,   0.05450,  500.00,  600.00,  625.00,  0.00000,  0.00000,  0.00000,  0.00000,1,1,   0.00,   1,1.0000
   218,   221,'2 ', 3.30000E-3, 2.59000E-2,   0.05450,  500.00,  600.00,  625.00,  0.00000,  0.00000,  0.00000,  0.00000,1,1,   0.00,   1,1.0000
   219,   220,'1 ', 5.10000E-3, 3.96000E-2,   0.08330,  500.00,  600.00,  625.00,  0.00000,  0.00000,  0.00000,  0.00000,1,1,   0.00,   1,1.0000
   219,   220,'2 ', 5.10000E-3, 3.96000E-2,   0.08330,  500.00,  600.00,  625.00,  0.00000,  0.00000,  0.00000,  0.00000,1,1,   0.00,   1,1.0000
   220,   223,'1 ', 2.80000E-3, 2.16000E-2,   0.04550,  500.00,  600.00,  625.00,  0.00000,  0.00000,  0.00000,  0.00000,1,1,   0.00,   1,1.0000
   220,   223,'2 ', 2.80000E-3, 2.16000E-2,   0.04550,  500.00,  600.00,  625.00,  0.00000,  0.00000,  0.00000,  0.00000,1,1,   0.00,   1,1.0000
   221,   222,'1 ', 8.70000E-3, 6.78000E-2,   0.14240,  500.00,  600.00,  625.00,  0.00000,  0.00000,  0.00000,  0.00000,1,1,   0.00,   1,1.0000
0 / END OF BRANCH DATA, BEGIN TRANSFORMER DATA
   103,   224,     0,'1 ',1,1,1, 0.00000E+00, 0.00000E+00,2,'            ',1,   1,1.0000,   0,1.0000,   0,1.0000,   0,1.0000,'            '
 2.30000E-3, 2.00000E-2,   100.00
1.03750,   0.000,   0.000,   400.00,   510.00,   600.00, 1,    215, 1.05000, 0.95000, 1.10000, 0.90000,  17, 0, 0.00000, 0.00000,  0.000
1.00000,   0.000
   109,   211,     0,'1 ',1,1,1, 0.00000E+00, 0.00000E+00,2,'            ',1,   1,1.0000,   0,1.0000,   0,1.0000,   0,1.0000,'            '
 2.30000E-3, 2.00000E-2,   100.00
1.04689,   0.000,   0.000,   400.00,   510.00,   600.00, 1,    213, 1.05000, 0.95000, 1.10000, 0.90000,  17, 0, 0.00000, 0.00000,  0.000
1.00000,   0.000
   109,   212,     0,'1 ',1,1,1, 0.00000E+00, 0.00000E+00,2,'            ',1,   1,1.0000,   0,1.0000,   0,1.0000,   0,1.0000,'            '
 2.30000E-3, 2.00000E-2,   100.00
1.03907,   0.000,   0.000,   450.00,   510.00,   600.00, 1,    213, 1.05000, 0.95000, 1.10000, 0.90000,  17, 0, 0.00000, 0.00000,  0.000
1.00000,   0.000
   110,   211,     0,'1 ',1,1,1, 0.00000E+00, 0.00000E+00,2,'            ',1,   1,1.0000,   0,1.0000,   0,1.0000,   0,1.0000,'            '
 2.30000E-3, 2.00000E-2,   100.00
1.05000,   0.000,   0.000,   400.00,   510.00,   600.00, 1,    110, 1.05000, 0.95000, 1.10000, 0.90000,  17, 0, 0.00000, 0.00000,  0.000
1.00000,   0.000
   110,   212,     0,'1 ',1,1,1, 0.00000E+00, 0.00000E+00,1,'            ',1,   1,1.0000,   0,1.0000,   0,1.0000,   0,1.0000,'            '
 2.30000E-3, 2.00000E-2,   100.00
1.03717,   0.000, -18.212,   400.00,   510.00,   600.00, 3,    110,45.05000,-45.0000,220.0000,180.0000,9999, 0, 0.00000, 0.00000,  0.000
1.00000,   0.000
   225,   214,     0,'1 ',1,1,1, 0.00000E+00, 0.00000E+00,2,'            ',1,   1,1.0000,   0,1.0000,   0,1.0000,   0,1.0000,'            '
 1.00000E-3, 2.00000E-2,   100.00
1.00000,   0.000,   7.624,   500.00,   600.00,   625.00, 3,      0,45.00000,-45.0000,350.0000,320.0000,9999, 0, 0.00000, 0.00000,  0.000
1.00000,   0.000
0 / END OF TRANSFORMER DATA, BEGIN AREA DATA
   1,     0,     0.000,    10.000,'SOUTH       '
   2,     0,     0.000,    10.000,'SOUTHGEN    '
   3,     0,     0.000,    10.000,'MIDAREA     '
   4,     0,     0.000,    10.000,'NORTH       '
   5,     0,     0.000,    10.000,'RADIAL      '
0 / END OF AREA DATA, BEGIN TWO-TERMINAL DC DATA
0 / END OF TWO-TERMINAL DC DATA, BEGIN VSC DC LINE DATA
0 / END OF VSC DC LINE DATA, BEGIN IMPEDANCE CORRECTION DATA
0 / END OF IMPEDANCE CORRECTION DATA, BEGIN MULTI-TERMINAL DC DATA
0 / END OF MULTI-TERMINAL DC DATA, BEGIN MULTI-SECTION LINE DATA
0 / END OF MULTI-SECTION LINE DATA, BEGIN ZONE DATA
   1,'SOUTHWST    '
   2,'SOUTHEST    '
   3,'EASTXFRS    '
   4,'MIDEAST     '
   5,'MID         '
   6,'MIDWEST     '
   7,'WAYNORTH    '
0 / END OF ZONE DATA, BEGIN INTER-AREA TRANSFER DATA
0 / END OF INTER-AREA TRANSFER DATA, BEGIN OWNER DATA
0 / END OF OWNER DATA, BEGIN FACTS DEVICE DATA
0 / END OF FACTS DEVICE DATA, BEGIN SWITCHED SHUNT DATA
   106,2,0,1,1.03810,1.03810,     0,  100.0,'            ',    0.00, 5,  -20.00
0 / END OF SWITCHED SHUNT DATA, BEGIN GNE DATA
0 / END OF GNE DATA, BEGIN INDUCTION MACHINE DATA
0 / END OF INDUCTION MACHINE DATA
Q
